src/test/resources/init_v_zero_imp_loop.xiidm
<?xml version="1.0" encoding="UTF-8"?>
<iidm:network xmlns:iidm="http://www.powsybl.org/schema/iidm/1_7" id="test" caseDate="2020-02-12T09:30:00.000Z" forecastDistance="0" sourceFormat="XIIDM" minimumValidationLevel="STEADY_STATE_HYPOTHESIS">
    <iidm:substation id="A">
        <iidm:voltageLevel id="B" nominalV="132.0" topologyKind="BUS_BREAKER">
            <iidm:busBreakerTopology>
                <iidm:bus id="C"/>
            </iidm:busBreakerTopology>
        </iidm:voltageLevel>
        <iidm:voltageLevel id="D" nominalV="132.0" topologyKind="BUS_BREAKER">
            <iidm:busBreakerTopology>
                <iidm:bus id="E"/>
            </iidm:busBreakerTopology>
        </iidm:voltageLevel>
        <iidm:voltageLevel id="F" nominalV="132.0" topologyKind="BUS_BREAKER">
            <iidm:busBreakerTopology>
                <iidm:bus id="G"/>
            </iidm:busBreakerTopology>
        </iidm:voltageLevel>
        <iidm:voltageLevel id="H" nominalV="400.0" topologyKind="BUS_BREAKER">
            <iidm:busBreakerTopology>
                <iidm:bus id="I"/>
            </iidm:busBreakerTopology>
            <iidm:generator id="J" energySource="THERMAL" minP="0.0" maxP="442.0" voltageRegulatorOn="true" targetP="431.0" targetV="390.0" bus="I" connectableBus="I"/>
        </iidm:voltageLevel>
        <iidm:voltageLevel id="K" nominalV="33.0" topologyKind="BUS_BREAKER">
            <iidm:busBreakerTopology>
                <iidm:bus id="L"/>
            </iidm:busBreakerTopology>
            <iidm:load id="M" loadType="UNDEFINED" p0="56.7898" q0="10.8215" bus="L" connectableBus="L"/>
        </iidm:voltageLevel>
        <iidm:voltageLevel id="N" nominalV="132.0" topologyKind="BUS_BREAKER">
            <iidm:busBreakerTopology>
                <iidm:bus id="O"/>
            </iidm:busBreakerTopology>
        </iidm:voltageLevel>
        <iidm:voltageLevel id="P" nominalV="132.0" topologyKind="BUS_BREAKER">
            <iidm:busBreakerTopology>
                <iidm:bus id="Q"/>
            </iidm:busBreakerTopology>
        </iidm:voltageLevel>
        <iidm:voltageLevel id="R" nominalV="132.0" topologyKind="BUS_BREAKER">
            <iidm:busBreakerTopology>
                <iidm:bus id="S"/>
            </iidm:busBreakerTopology>
        </iidm:voltageLevel>
        <iidm:twoWindingsTransformer id="T" r="0.18197712081874998" x="14.002462900802499" g="0" b="0" ratedU1="400.0" ratedU2="132.94" bus1="I" connectableBus1="I" voltageLevelId1="H" bus2="G" connectableBus2="G" voltageLevelId2="F"/>
        <iidm:twoWindingsTransformer id="U" r="0.08034375" x="3.0012875" g="0.0" b="0.0" ratedU1="132.0" ratedU2="33.0" bus1="O" connectableBus1="O" voltageLevelId1="N" bus2="L" connectableBus2="L" voltageLevelId2="K"/>
        <iidm:twoWindingsTransformer id="V" r="0.05082" x="2.2139375" g="0.0" b="0.0" ratedU1="132.0" ratedU2="33.0" bus1="Q" connectableBus1="Q" voltageLevelId1="P" bus2="L" connectableBus2="L" voltageLevelId2="K">
            <iidm:ratioTapChanger lowTapPosition="0" tapPosition="0" loadTapChangingCapabilities="false">
                <iidm:step r="0.0" x="0.0" g="0.0" b="0.0" rho="0.9514747859181732"/>
            </iidm:ratioTapChanger>
        </iidm:twoWindingsTransformer>
    </iidm:substation>
    <iidm:line id="W" r="0.038" x="0.104" g1="0.0" b1="0" g2="0.0" b2="0" bus1="E" connectableBus1="E" voltageLevelId1="D" bus2="C" connectableBus2="C" voltageLevelId2="B"/>
    <iidm:line id="X" r="3.58481" x="7.95458" g1="0.0" b1="0" g2="0.0" b2="0" bus1="S" connectableBus1="S" voltageLevelId1="R" bus2="O" connectableBus2="O" voltageLevelId2="N"/>
    <iidm:line id="Y" r="0.043" x="0.115" g1="0.0" b1="0" g2="0.0" b2="0" bus1="G" connectableBus1="G" voltageLevelId1="F" bus2="C" connectableBus2="C" voltageLevelId2="B"/>
    <iidm:line id="Z" r="0.0" x="0.0" g1="0.0" b1="0.0" g2="0.0" b2="0.0" bus1="C" connectableBus1="C" voltageLevelId1="B" bus2="Q" connectableBus2="Q" voltageLevelId2="P"/>
    <iidm:line id="AA" r="0.0" x="0.0" g1="0.0" b1="0.0" g2="0.0" b2="0.0" bus1="C" connectableBus1="C" voltageLevelId1="B" bus2="S" connectableBus2="S" voltageLevelId2="R"/>
</iidm:network>
